** MATERIALS
** 
*Material, name=DP1000
*Elastic
210000., 0.3
*Plastic
947.3339074876216,0.0
1129.8051255031965,0.002
1194.191531805794,0.004
1235.4054118675447,0.006
1266.0754984944367,0.008
1290.6388581191402,0.01
1311.1948586667097,0.012
1328.9091554605588,0.014
1344.498431381558,0.016
1358.4358338175475,0.018
1371.0506350274222,0.02
1382.5814949944795,0.022
1393.2070903617193,0.024
1403.0647702644385,0.026
1412.2624596840897,0.028
1420.886551291391,0.03
1429.0073090443755,0.032
1436.6826711450071,0.034
1443.9609907342842,0.036
1450.883052331059,0.038
** ... 551 like lines cut
*Density
 7.85e-09,
**