** MATERIALS
** 
*Material, name=DP1000
*Elastic
210000., 0.3
*Plastic
407.1164297449377,0.0
408.9638015659988,0.0005
410.48503399039214,0.001
411.74385032599423,0.0015
412.791495360279,0.002
413.6691792667907,0.0025
414.41004286888614,0.003
415.0407380037914,0.0035
415.5826983702707,0.004
416.0531614792428,0.0045
416.4659904542719,0.005
416.83233488168486,0.0055
417.16116223272104,0.006
417.459685206401,0.0065
417.73370537721144,0.007
417.98788953944376,0.0075
418.2259919296498,0.008
418.4510329270661,0.0085
418.66544275585727,0.009
418.87117704361975,0.0095
** ... 2531 like lines cut
*Density
 7.85e-09,
**