** MATERIALS
** 
*Material, name=DP1000
*Elastic
210000., 0.3
*Plastic
200.97395682912122,0.0
204.04117033351247,0.0005
206.62297697372892,0.001
208.81515070959193,0.0015
210.69453969304442,0.002
212.3228063607694,0.0025
213.74942841274037,0.003
215.014106739859,0.0035
216.14869749894422,0.004
217.1787623727079,0.0045
218.1248124687031,0.005
219.0033064000765,0.0055
219.82745112652353,0.006
220.60784453382283,0.0065
221.35299102744702,0.007
222.06971523510873,0.0075
222.7634939538724,0.008
223.43872249827638,0.0085
224.09892841308388,0.009
224.74694295242247,0.0095
** ... 2531 like lines cut
*Density
 7.85e-09,
**